8

C          1.02900       -0.08910        0.07710
F          0.58520        0.69690       -0.93880
C          2.53930       -0.07760        0.07670
H          0.63010        0.30810        1.01420
H          0.64060       -1.09900       -0.07910
H          2.91250        0.94340        0.20180
H          2.92290       -0.44790       -0.87890
H          2.93610       -0.70070        0.88270
