13
phenol.pdb
C          1.67700       -1.86400        0.00000
C          3.07200       -1.86400        0.00000
C          3.77000       -0.65600        0.00000
C          3.07200        0.55200       -0.00100
C          1.67700        0.55200       -0.00200
C          0.98000       -0.65600       -0.00100
H          1.12700       -2.81600        0.00000
H          3.62200       -2.81600        0.00100
H          3.62200        1.50400       -0.00100
H          1.12700        1.50400       -0.00300
H          0.12000       -0.65600       -0.00100
O          5.20000       -0.65600        0.00100
H          5.52000       -0.76900       -0.89700
