9

C          0.94879       -0.06979        0.04157
C          2.46381       -0.07433        0.04504
O          2.94508       -1.40478        0.15900
H          0.56237        0.94791       -0.06183
H          0.55905       -0.50235        0.96830
H          0.56431       -0.68009       -0.78157
H          2.85622        0.51443        0.88039
H          2.85003        0.35017       -0.88692
H          2.60507       -1.76916        0.99375
